Warning: d1: breakdown current increased to 3.86635e-10 to resolve
Warning: incompatibility with specified saturation current

No. of Data Rows : 1008
Note: No ".plot", ".print", or ".fourier" lines; no simulations run
