Warning: v2: no DC value, transient time 0 value used

No. of Data Rows : 3116
Note: No ".plot", ".print", or ".fourier" lines; no simulations run
